Circuit: * D:\DSD_FINAL_PROJECT\ALL.asc

x8:v6: Removing PWL point (1e-009,0)
x8:v6: Removing PWL point (5e-009,1.2)
x8:v5: Removing PWL point (1e-009,0)
x8:v5: Removing PWL point (9e-009,1.2)
x8:v4: Removing PWL point (1e-009,0)
x8:v4: Removing PWL point (5e-009,0)
x8:v4: Removing PWL point (7e-009,1.2)
x8:v3: Removing PWL point (1e-009,0)
x8:v3: Removing PWL point (4e-009,1.2)
x8:v2: Removing PWL point (2e-009,0)
x8:v2: Removing PWL point (9e-009,1.2)
x8:v1: Removing PWL point (1e-009,1.2)
x8:v1: Removing PWL point (6e-009,1.2)
x8:v1: Removing PWL point (9e-009,1.2)
x1:v6: Removing PWL point (1e-009,0)
x1:v6: Removing PWL point (5e-009,1.2)
x1:v5: Removing PWL point (1e-009,0)
x1:v5: Removing PWL point (9e-009,1.2)
x1:v4: Removing PWL point (1e-009,0)
x1:v4: Removing PWL point (5e-009,0)
x1:v4: Removing PWL point (7e-009,1.2)
x1:v3: Removing PWL point (1e-009,0)
x1:v3: Removing PWL point (4e-009,1.2)
x1:v2: Removing PWL point (2e-009,0)
x1:v2: Removing PWL point (9e-009,1.2)
x1:v1: Removing PWL point (1e-009,1.2)
x1:v1: Removing PWL point (6e-009,1.2)
x1:v1: Removing PWL point (9e-009,1.2)
WARNING: Node X2:NC_01 is floating.
WARNING: Node X3:NC_01 is floating.
WARNING: Node X5:NC_01 is floating.
WARNING: Node X6:NC_01 is floating.
WARNING: Node X4:NC_01 is floating.
WARNING: Node X7:NC_01 is floating.
WARNING: Node X9:NC_01 is floating.
WARNING: Node X10:NC_01 is floating.

WARNING: Less than two connections to node X2:NC_01.  This node is used by M:X2:U18:1.
WARNING: Less than two connections to node X3:NC_01.  This node is used by M:X3:U18:1.
WARNING: Less than two connections to node NC_01.  This node is used by V:X1:7.
WARNING: Less than two connections to node X5:NC_01.  This node is used by M:X5:U18:1.
WARNING: Less than two connections to node X6:NC_01.  This node is used by M:X6:U18:1.
WARNING: Less than two connections to node X4:NC_01.  This node is used by M:X4:U18:1.
WARNING: Less than two connections to node X7:NC_01.  This node is used by M:X7:U18:1.
WARNING: Less than two connections to node NC_02.  This node is used by V:X8:7.
WARNING: Less than two connections to node X9:NC_01.  This node is used by M:X9:U18:1.
WARNING: Less than two connections to node X10:NC_01.  This node is used by M:X10:U18:1.
Direct Newton iteration failed to find .op point.  (Use ".option noopiter" to skip.)
Starting Gmin stepping
Gmin = 10
Gmin = 1.07374
Gmin = 0.115292
Gmin = 0.0123794
Gmin = 0.00132923
Gmin = 0.000142725
Gmin = 1.5325e-005
vernier = 0.5
vernier = 0.25
vernier = 0.125
Gmin = 4.01735e-006
vernier = 0.0625
vernier = 0.03125
vernier = 0.015625
vernier = 0.0078125
vernier = 0.00390625
vernier = 0.00195313
vernier = 0.000976563
vernier = 0.000488281
Gmin = 0
Gmin stepping failed

Starting source stepping with srcstepmethod=0
Source Step = 3.0303%
Source Step = 33.3333%
Source Step = 63.6364%
Source Step = 93.9394%
Source stepping succeeded in finding the operating point.


Date: Mon Dec 13 22:27:18 2021
Total elapsed time: 64.427 seconds.

tnom = 27
temp = 27
method = modified trap
totiter = 5953
traniter = 3785
tranpoints = 1560
accept = 1429
rejected = 131
matrix size = 1268
fillins = 1608
solver = Normal
Thread vector: 458.1/189.5[8] 188.9/24.6[8] 39.9/9.6[8] 11.9/6.7[5]  2592/500
Matrix Compiler1: 358.65 KB object code size  311.8/144.8/[57.3]
Matrix Compiler2: 189.24 KB object code size  71.3/55.4/[15.4]

