Circuit: * D:\DSD_FINAL_PROJECT\input_sim_example.asc

V1: Removing PWL point (1e-009,0)
V1: Removing PWL point (4e-009,1)
Direct Newton iteration for .op point succeeded.

Date: Mon Dec 13 15:41:20 2021
Total elapsed time: 0.047 seconds.

tnom = 27
temp = 27
method = modified trap
totiter = 2230
traniter = 2222
tranpoints = 1084
accept = 1084
rejected = 0
matrix size = 30
fillins = 0
solver = Normal
Matrix Compiler1: 3.10 KB object code size  0.6/0.5/[0.2]
Matrix Compiler2: 3.35 KB object code size  0.3/0.5/[0.2]

