Circuit: * D:\DSD_FINAL_PROJECT\input_sim_example_FA_test.asc

V1: Removing PWL point (1e-009,0)
V1: Removing PWL point (4e-009,1)
WARNING: Node X1:NC_01 is floating.

WARNING: Less than two connections to node X1:NC_01.  This node is used by M:X1:U18:1.
Direct Newton iteration for .op point succeeded.

Date: Mon Dec 13 20:09:24 2021
Total elapsed time: 0.126 seconds.

tnom = 27
temp = 27
method = modified trap
totiter = 2373
traniter = 2354
tranpoints = 1088
accept = 1086
rejected = 2
matrix size = 113
fillins = 4
solver = Normal
Thread vector: 48.4/24.1[2] 4.9/3.1[2] 1.7/1.3[2] 0.6/1.5[1]  2592/500
Matrix Compiler1: 14.64 KB object code size  3.2/1.4/[0.8]
Matrix Compiler2: 14.22 KB object code size  1.3/1.5/[0.7]

